A71EV2A-x1140_A_147_1_A71EV2A-x0911+A+147+1_ALIG
     RDKit          3D

 15 16  0  0  0  0  0  0  0  0999 V2000
   13.0970    9.6510   24.7100 O   0  0  0  0  0  0  0  0  0  0  0  0
   12.6740   10.7620   24.4830 C   0  0  0  0  0  0  0  0  0  0  0  0
   11.1810   11.0070   24.4930 C   0  0  0  0  0  0  0  0  0  0  0  0
   10.3330    9.9090   24.3250 C   0  0  0  0  0  0  0  0  0  0  0  0
    8.9580   10.0560   24.4220 C   0  0  0  0  0  0  0  0  0  0  0  0
    8.4030   11.2950   24.6420 C   0  0  0  0  0  0  0  0  0  0  0  0
    9.2190   12.4040   24.7920 C   0  0  0  0  0  0  0  0  0  0  0  0
   10.5930   12.2440   24.7420 C   0  0  0  0  0  0  0  0  0  0  0  0
   11.5700   13.6050   25.1100 Cl  0  0  0  0  0  0  0  0  0  0  0  0
   13.6670   11.8880   24.2040 C   0  0  0  0  0  0  0  0  0  0  0  0
   14.7360   12.1490   25.1900 N   0  0  0  0  0  0  0  0  0  0  0  0
   14.2450   12.4950   26.5300 C   0  0  0  0  0  0  0  0  0  0  0  0
   15.4900   12.4370   27.3880 C   0  0  0  0  0  0  0  0  0  0  0  0
   16.3130   11.3300   26.7530 C   0  0  0  0  0  0  0  0  0  0  0  0
   15.6230   11.0000   25.4290 C   0  0  0  0  0  0  0  0  0  0  0  0
  9  8  1  0
  8  7  1  0
  7  6  2  0
  6  5  1  0
  5  4  2  0
  4  3  1  0
  8  3  2  0
  3  2  1  0
  2  1  2  0
 10  2  1  0
 11 10  1  0
 11 15  1  0
 15 14  1  0
 14 13  1  0
 13 12  1  0
 12 11  1  0
M  END
$$$$
A71EV2A-x1140_A_147_1_A71EV2A-x0911+A+147+1_BLIG
     RDKit          3D

 15 16  0  0  0  0  0  0  0  0999 V2000
   12.8760   10.2500   24.4120 O   0  0  0  0  0  0  0  0  0  0  0  0
   12.2800   11.3030   24.2760 C   0  0  0  0  0  0  0  0  0  0  0  0
   10.7930   11.3650   24.4110 C   0  0  0  0  0  0  0  0  0  0  0  0
   10.2160   12.5440   24.9060 C   0  0  0  0  0  0  0  0  0  0  0  0
    8.8550   12.6130   25.1450 C   0  0  0  0  0  0  0  0  0  0  0  0
    8.0540   11.5100   24.9410 C   0  0  0  0  0  0  0  0  0  0  0  0
    8.5990   10.3350   24.4540 C   0  0  0  0  0  0  0  0  0  0  0  0
    9.9480   10.2870   24.1440 C   0  0  0  0  0  0  0  0  0  0  0  0
   10.4930    8.9420   23.1970 Cl  0  0  0  0  0  0  0  0  0  0  0  0
   13.0530   12.5900   24.0190 C   0  0  0  0  0  0  0  0  0  0  0  0
   14.2650   12.7420   24.8390 N   0  0  0  0  0  0  0  0  0  0  0  0
   14.0280   12.5560   26.2790 C   0  0  0  0  0  0  0  0  0  0  0  0
   15.3570   12.0890   26.8060 C   0  0  0  0  0  0  0  0  0  0  0  0
   15.7460   11.1630   25.8500 C   0  0  0  0  0  0  0  0  0  0  0  0
   15.3270   11.7760   24.5060 C   0  0  0  0  0  0  0  0  0  0  0  0
  9  8  1  0
  8  7  1  0
  7  6  2  0
  6  5  1  0
  5  4  2  0
  4  3  1  0
  8  3  2  0
  3  2  1  0
  2  1  2  0
 10  2  1  0
 11 10  1  0
 11 15  1  0
 15 14  1  0
 14 13  1  0
 13 12  1  0
 12 11  1  0
M  END
$$$$
