A71EV2A-x0566_A_147_1_A71EV2A-x0911+A+147+1__LIG
     RDKit          3D

 13 14  0  0  0  0  0  0  0  0999 V2000
   12.1700   13.6410   24.3760 O   0  0  0  0  0  0  0  0  0  0  0  0
   11.1980   13.7110   23.6240 C   0  0  0  0  0  0  0  0  0  0  0  0
   11.1150   14.7190   22.7640 N   0  0  0  0  0  0  0  0  0  0  0  0
   12.3000   15.4000   22.2810 C   0  0  0  0  0  0  0  0  0  0  0  0
   10.1670   12.5890   23.5270 C   0  0  0  0  0  0  0  0  0  0  0  0
    8.9750   12.5120   24.3180 C   0  0  0  0  0  0  0  0  0  0  0  0
    8.2720   13.4950   24.9720 N   0  0  0  0  0  0  0  0  0  0  0  0
    7.1650   12.9350   25.5440 C   0  0  0  0  0  0  0  0  0  0  0  0
    7.1360   11.6020   25.2960 C   0  0  0  0  0  0  0  0  0  0  0  0
    8.2700   11.3000   24.4920 C   0  0  0  0  0  0  0  0  0  0  0  0
    8.7280   10.1570   23.8390 C   0  0  0  0  0  0  0  0  0  0  0  0
    9.8250   10.2340   23.0070 C   0  0  0  0  0  0  0  0  0  0  0  0
   10.5290   11.4370   22.8350 C   0  0  0  0  0  0  0  0  0  0  0  0
  4  3  1  0
  3  2  1  0
  2  1  2  0
  5  2  1  0
  5 13  2  0
 13 12  1  0
 12 11  2  0
 11 10  1  0
 10  9  1  0
  9  8  2  0
  8  7  1  0
  7  6  1  0
  6  5  1  0
 10  6  2  0
M  END
$$$$
