A71EV2A-x0412_A_147_1_A71EV2A-x0412+A+147+1__LIG
     RDKit          3D

 15 16  0  0  0  0  0  0  0  0999 V2000
   17.3750   -9.9500   12.7890 O   0  0  0  0  0  0  0  0  0  0  0  0
   18.3880   -9.2810   12.6030 C   0  0  0  0  0  0  0  0  0  0  0  0
   18.9460   -8.3630   13.6500 C   0  0  0  0  0  0  0  0  0  0  0  0
   19.0710   -9.3330   11.4240 N   0  0  0  0  0  0  0  0  0  0  0  0
   18.6490  -10.1360   10.3790 C   0  0  0  0  0  0  0  0  0  0  0  0
   17.7790  -11.1190   10.4630 N   0  0  0  0  0  0  0  0  0  0  0  0
   17.7590  -11.6800    9.1810 C   0  0  0  0  0  0  0  0  0  0  0  0
   18.6370  -10.9990    8.3430 C   0  0  0  0  0  0  0  0  0  0  0  0
   19.1870   -9.9920    9.1270 N   0  0  0  0  0  0  0  0  0  0  0  0
   20.0950   -8.9260    8.6810 C   0  0  0  0  0  0  0  0  0  0  0  0
   19.5670   -7.5530    9.0310 C   0  0  0  0  0  0  0  0  0  0  0  0
   18.8370  -11.3730    7.0180 C   0  0  0  0  0  0  0  0  0  0  0  0
   18.1310  -12.4710    6.5480 C   0  0  0  0  0  0  0  0  0  0  0  0
   17.2500  -13.1670    7.3760 C   0  0  0  0  0  0  0  0  0  0  0  0
   17.0400  -12.7710    8.6920 C   0  0  0  0  0  0  0  0  0  0  0  0
 11 10  1  0
 10  9  1  0
  9  5  1  0
  5  4  1  0
  4  2  1  0
  2  1  2  0
  3  2  1  0
  6  5  2  0
  7  6  1  0
  7 15  2  0
 15 14  1  0
 14 13  2  0
 13 12  1  0
 12  8  2  0
  9  8  1  0
  8  7  1  0
M  END
$$$$
