A71EV2A-x0351_A_301_1_A71EV2A-x0911+A+147+1__LIG
     RDKit          3D

 16 17  0  0  0  0  0  0  0  0999 V2000
    8.6870   14.9890   28.3390 O   0  0  0  0  0  0  0  0  0  0  0  0
    7.6490   15.6850   27.6380 S   0  0  0  0  0  0  0  0  0  0  0  0
    7.6190   17.1170   27.6670 O   0  0  0  0  0  0  0  0  0  0  0  0
    6.0810   15.1190   28.2650 C   0  0  0  0  0  0  0  0  0  0  0  0
    4.9330   15.9920   27.8170 C   0  0  0  0  0  0  0  0  0  0  0  0
    7.7710   15.2460   26.0690 N   0  0  0  0  0  0  0  0  0  0  0  0
    6.8270   14.3670   25.3680 C   0  0  0  0  0  0  0  0  0  0  0  0
    7.4020   12.9880   25.1590 C   0  0  0  0  0  0  0  0  0  0  0  0
    8.5050   12.8050   24.3270 C   0  0  0  0  0  0  0  0  0  0  0  0
    8.8960   11.5200   24.0170 C   0  0  0  0  0  0  0  0  0  0  0  0
    9.9020   11.1090   23.1700 O   0  0  0  0  0  0  0  0  0  0  0  0
    9.9100    9.6810   23.2550 C   0  0  0  0  0  0  0  0  0  0  0  0
    8.7660    9.2740   24.0040 O   0  0  0  0  0  0  0  0  0  0  0  0
    8.2440   10.4330   24.5360 C   0  0  0  0  0  0  0  0  0  0  0  0
    7.1860   10.5850   25.4110 C   0  0  0  0  0  0  0  0  0  0  0  0
    6.7730   11.8730   25.7100 C   0  0  0  0  0  0  0  0  0  0  0  0
  5  4  1  0
  4  2  1  0
  3  2  2  0
  2  1  2  0
  6  2  1  0
  7  6  1  0
  8  7  1  0
  8 16  2  0
 16 15  1  0
 15 14  2  0
 14 13  1  0
 13 12  1  0
 12 11  1  0
 11 10  1  0
 14 10  1  0
 10  9  2  0
  9  8  1  0
M  END
$$$$
