A71EV2A-x0379_A_147_1_A71EV2A-x0379+A+147+1__LIG
     RDKit          3D

 13 13  0  0  0  0  0  0  0  0999 V2000
   12.6440   20.2900    5.6810 F   0  0  0  0  0  0  0  0  0  0  0  0
   12.2790   21.2350    6.5530 C   0  0  0  0  0  0  0  0  0  0  0  0
   11.1540   20.7970    7.1120 F   0  0  0  0  0  0  0  0  0  0  0  0
   11.9350   22.3020    5.8270 F   0  0  0  0  0  0  0  0  0  0  0  0
   13.3380   21.5410    7.5670 C   0  0  0  0  0  0  0  0  0  0  0  0
   13.0040   22.1110    8.7910 C   0  0  0  0  0  0  0  0  0  0  0  0
   13.9810   22.4270    9.7160 C   0  0  0  0  0  0  0  0  0  0  0  0
   14.6790   21.2880    7.3050 C   0  0  0  0  0  0  0  0  0  0  0  0
   15.6550   21.6160    8.2310 C   0  0  0  0  0  0  0  0  0  0  0  0
   15.3210   22.1980    9.4460 C   0  0  0  0  0  0  0  0  0  0  0  0
   16.3860   22.6580   10.4130 C   0  0  0  0  0  0  0  0  0  0  0  0
   17.4800   21.7010   10.5940 N   0  0  0  0  0  0  0  0  0  0  0  0
   18.5450   22.2560   11.4320 C   0  0  0  0  0  0  0  0  0  0  0  0
 13 12  1  0
 12 11  1  0
 11 10  1  0
 10  7  2  0
  7  6  1  0
  6  5  2  0
  8  5  1  0
  9  8  2  0
 10  9  1  0
  5  2  1  0
  3  2  1  0
  4  2  1  0
  2  1  1  0
M  END
$$$$
