A71EV2A-x0359_A_147_1_A71EV2A-x0525+A+246+1__LIG
     RDKit          3D

 12 12  0  0  0  0  0  0  0  0999 V2000
   14.6750   22.7500   23.3190 N   0  0  0  0  0  0  0  0  0  0  0  0
   13.7660   22.5520   23.9360 C   0  0  0  0  0  0  0  0  0  0  0  0
   12.5680   22.3560   24.6680 C   0  0  0  0  0  0  0  0  0  0  0  0
   12.3690   21.2810   25.4800 C   0  0  0  0  0  0  0  0  0  0  0  0
   11.1370   21.1120   26.0990 C   0  0  0  0  0  0  0  0  0  0  0  0
   11.5460   23.2490   24.4860 C   0  0  0  0  0  0  0  0  0  0  0  0
   10.3460   23.1310   25.1460 C   0  0  0  0  0  0  0  0  0  0  0  0
   10.1170   22.0550   25.9680 C   0  0  0  0  0  0  0  0  0  0  0  0
    8.8540   21.9600   26.7800 C   0  0  0  0  0  0  0  0  0  0  0  0
    9.0460   22.3240   28.2110 N   0  0  0  0  0  0  0  0  0  0  0  0
    8.7490   23.7340   28.4180 C   0  0  0  0  0  0  0  0  0  0  0  0
   10.3810   22.0640   28.6450 C   0  0  0  0  0  0  0  0  0  0  0  0
 12 10  1  0
 11 10  1  0
 10  9  1  0
  9  8  1  0
  8  5  2  0
  5  4  1  0
  4  3  2  0
  3  2  1  0
  2  1  3  0
  6  3  1  0
  7  6  2  0
  8  7  1  0
M  END
$$$$
