A71EV2A-x0428_A_147_1_A71EV2A-x0541+A+147+1__LIG
     RDKit          3D

 12 12  0  0  0  0  0  0  0  0999 V2000
    7.2460   11.8440    5.2740 O   0  0  0  0  0  0  0  0  0  0  0  0
    7.0290   13.1910    4.9030 S   0  0  0  0  0  0  0  0  0  0  0  0
    7.1570   14.2170    5.8560 O   0  0  0  0  0  0  0  0  0  0  0  0
    5.5130   13.3010    4.3430 N   0  0  0  0  0  0  0  0  0  0  0  0
    5.0740   12.3030    3.3700 C   0  0  0  0  0  0  0  0  0  0  0  0
    4.9220   14.6330    4.2350 C   0  0  0  0  0  0  0  0  0  0  0  0
    8.0330   13.5250    3.5100 C   0  0  0  0  0  0  0  0  0  0  0  0
    8.5390   14.7840    3.2900 C   0  0  0  0  0  0  0  0  0  0  0  0
    9.3200   15.0760    2.2480 N   0  0  0  0  0  0  0  0  0  0  0  0
    9.5970   14.0980    1.3940 C   0  0  0  0  0  0  0  0  0  0  0  0
    9.1220   12.8200    1.5230 C   0  0  0  0  0  0  0  0  0  0  0  0
    8.3220   12.5200    2.6100 C   0  0  0  0  0  0  0  0  0  0  0  0
  6  4  1  0
  5  4  1  0
  4  2  1  0
  3  2  2  0
  2  1  2  0
  7  2  1  0
  7 12  2  0
 12 11  1  0
 11 10  2  0
 10  9  1  0
  9  8  2  0
  8  7  1  0
M  END
$$$$
