A71EV2A-x0836_A_302_1_A71EV2A-x0911+A+147+1__LIG
     RDKit          3D

 16 17  0  0  0  0  0  0  0  0999 V2000
    0.8100   15.2180   19.1410 N   0  0  0  0  0  0  0  0  0  0  0  0
    0.3990   13.8240   18.9360 C   0  0  2  0  0  0  0  0  0  0  0  0
    1.5610   12.8490   19.0450 C   0  0  0  0  0  0  0  0  0  0  0  0
    2.6300   12.9050   18.1640 C   0  0  0  0  0  0  0  0  0  0  0  0
    3.6950   12.0290   18.2900 C   0  0  0  0  0  0  0  0  0  0  0  0
    3.7040   11.0870   19.2920 C   0  0  0  0  0  0  0  0  0  0  0  0
    2.6520   11.0200   20.1730 C   0  0  0  0  0  0  0  0  0  0  0  0
    1.5850   11.8940   20.0510 C   0  0  0  0  0  0  0  0  0  0  0  0
   -0.4310   13.6700   17.6690 C   0  0  0  0  0  0  0  0  0  0  0  0
   -0.7990   12.4250   17.1820 C   0  0  0  0  0  0  0  0  0  0  0  0
   -1.5630   12.3040   16.0360 C   0  0  0  0  0  0  0  0  0  0  0  0
   -0.8470   14.7950   16.9760 C   0  0  0  0  0  0  0  0  0  0  0  0
   -1.6120   14.6880   15.8300 C   0  0  0  0  0  0  0  0  0  0  0  0
   -1.9690   13.4410   15.3590 C   0  0  0  0  0  0  0  0  0  0  0  0
   -2.7160   13.4240   14.2100 O   0  0  0  0  0  0  0  0  0  0  0  0
   -4.1340   13.4180   14.3370 C   0  0  0  0  0  0  0  0  0  0  0  0
 16 15  1  0
 15 14  1  0
 14 11  1  0
 11 10  2  0
 10  9  1  0
 12  9  2  0
 13 12  1  0
 14 13  2  0
  9  2  1  0
  2  1  1  6
  3  2  1  0
  3  8  2  0
  8  7  1  0
  7  6  2  0
  6  5  1  0
  5  4  2  0
  4  3  1  0
M  END
$$$$
