A71EV2A-x1148_A_201_1_A71EV2A-x0911+A+147+1__LIG
     RDKit          3D

  6  6  0  0  0  0  0  0  0  0999 V2000
    9.6130    9.3660   23.4090 Br  0  0  0  0  0  0  0  0  0  0  0  0
    8.7260   10.6250   24.4780 C   0  0  0  0  0  0  0  0  0  0  0  0
    9.0880   11.9380   24.5730 N   0  0  0  0  0  0  0  0  0  0  0  0
    8.2320   12.4890   25.4220 C   0  0  0  0  0  0  0  0  0  0  0  0
    7.3390   11.6010   25.8790 N   0  0  0  0  0  0  0  0  0  0  0  0
    7.6260   10.4010   25.2960 C   0  0  0  0  0  0  0  0  0  0  0  0
  2  1  1  0
  2  6  2  0
  6  5  1  0
  5  4  1  0
  4  3  2  0
  3  2  1  0
M  END
$$$$
