A71EV2A-x0911_A_147_1_A71EV2A-x0911+A+147+1__LIG
     RDKit          3D

 15 16  0  0  0  0  0  0  0  0999 V2000
   -1.0810   14.9630   19.5170 O   0  0  0  0  0  0  0  0  0  0  0  0
   -0.3860   14.0760   19.0580 C   0  0  0  0  0  0  0  0  0  0  0  0
   -0.3360   13.8240   17.5650 C   0  0  2  0  0  0  0  0  0  0  0  0
   -1.1140   14.8470   16.7710 C   0  0  0  0  0  0  0  0  0  0  0  0
   -1.3840   14.2350   15.4500 N   0  0  0  0  0  0  0  0  0  0  0  0
   -1.3980   12.7610   15.6350 C   0  0  0  0  0  0  0  0  0  0  0  0
   -1.0200   12.5150   17.1400 C   0  0  0  0  0  0  0  0  0  0  0  0
    0.3510   13.2890   19.8800 N   0  0  0  0  0  0  0  0  0  0  0  0
   -0.0420   13.1670   21.2780 C   0  0  0  0  0  0  0  0  0  0  0  0
    1.5170   12.5430   19.4980 C   0  0  0  0  0  0  0  0  0  0  0  0
    2.4470   13.0930   18.6250 C   0  0  0  0  0  0  0  0  0  0  0  0
    3.5950   12.3850   18.3150 C   0  0  0  0  0  0  0  0  0  0  0  0
    3.8220   11.1450   18.8700 C   0  0  0  0  0  0  0  0  0  0  0  0
    2.9040   10.6020   19.7380 C   0  0  0  0  0  0  0  0  0  0  0  0
    1.7470   11.2920   20.0540 C   0  0  0  0  0  0  0  0  0  0  0  0
  9  8  1  0
  8  2  1  0
  2  1  2  0
  3  2  1  1
  3  7  1  0
  7  6  1  0
  6  5  1  0
  5  4  1  0
  4  3  1  0
 10  8  1  0
 10 15  2  0
 15 14  1  0
 14 13  2  0
 13 12  1  0
 12 11  2  0
 11 10  1  0
M  END
$$$$
