A71EV2A-x0152_A_201_1_A71EV2A-x3977+A+202+1__LIG
     RDKit          3D

 17 18  0  0  0  0  0  0  0  0999 V2000
   18.5650   -4.9670   22.6390 O   0  0  0  0  0  0  0  0  0  0  0  0
   17.7180   -4.3810   22.0130 C   0  0  0  0  0  0  0  0  0  0  0  0
   17.2150   -4.8900   20.9170 N   0  0  0  0  0  0  0  0  0  0  0  0
   17.5030   -4.3400   19.6100 C   0  0  0  0  0  0  0  0  0  0  0  0
   18.4480   -3.1610   19.8280 C   0  0  0  0  0  0  0  0  0  0  0  0
   17.5160   -2.9030   22.1860 C   0  0  0  0  0  0  0  0  0  0  0  0
   17.9730   -2.2990   20.9320 N   0  0  0  0  0  0  0  0  0  0  0  0
   17.9410   -0.9550   20.9450 C   0  0  0  0  0  0  0  0  0  0  0  0
   17.3110   -0.2940   20.1370 O   0  0  0  0  0  0  0  0  0  0  0  0
   18.6480   -0.3370   22.1250 C   0  0  0  0  0  0  0  0  0  0  0  0
   18.1580    0.9790   22.2520 O   0  0  0  0  0  0  0  0  0  0  0  0
   17.8240    1.5520   23.4580 C   0  0  0  0  0  0  0  0  0  0  0  0
   17.1580    2.7370   23.7180 C   0  0  0  0  0  0  0  0  0  0  0  0
   17.5430    3.4150   24.8520 C   0  0  0  0  0  0  0  0  0  0  0  0
   18.5590    2.9170   25.6930 C   0  0  0  0  0  0  0  0  0  0  0  0
   19.1400    1.7230   25.4370 C   0  0  0  0  0  0  0  0  0  0  0  0
   18.7110    1.0040   24.3620 C   0  0  0  0  0  0  0  0  0  0  0  0
  9  8  2  0
 10  8  1  0
 11 10  1  0
 12 11  1  0
 12 17  2  0
 17 16  1  0
 16 15  2  0
 15 14  1  0
 14 13  2  0
 13 12  1  0
  8  7  1  0
  7  5  1  0
  5  4  1  0
  4  3  1  0
  3  2  1  0
  2  1  2  0
  6  2  1  0
  7  6  1  0
M  END
$$$$
