A71EV2A-x0517_A_147_1_A71EV2A-x0517+A+147+1__LIG
     RDKit          3D

 18 19  0  0  0  0  0  0  0  0999 V2000
   29.8660    5.9390   19.5640 F   0  0  0  0  0  0  0  0  0  0  0  0
   30.0690    7.0330   18.7920 C   0  0  0  0  0  0  0  0  0  0  0  0
   29.6320    8.2460   19.2430 C   0  0  0  0  0  0  0  0  0  0  0  0
   29.8710    9.3600   18.4600 C   0  0  0  0  0  0  0  0  0  0  0  0
   30.7060    6.8760   17.6060 C   0  0  0  0  0  0  0  0  0  0  0  0
   30.9450    7.9900   16.8400 C   0  0  0  0  0  0  0  0  0  0  0  0
   30.5410    9.2480   17.2620 C   0  0  0  0  0  0  0  0  0  0  0  0
   30.7810   10.4660   16.4220 C   0  0  0  0  0  0  0  0  0  0  0  0
   31.9740   10.4560   15.5940 N   0  0  0  0  0  0  0  0  0  0  0  0
   33.1700   10.6320   16.1310 C   0  0  0  0  0  0  0  0  0  0  0  0
   33.3130   10.8120   17.3000 O   0  0  0  0  0  0  0  0  0  0  0  0
   34.3380   10.5610   15.2140 C   0  0  0  0  0  0  0  0  0  0  0  0
   34.3300   10.3530   13.8560 C   0  0  0  0  0  0  0  0  0  0  0  0
   35.6900   10.6000   15.5400 C   0  0  0  0  0  0  0  0  0  0  0  0
   36.4490   10.4020   14.5090 N   0  0  0  0  0  0  0  0  0  0  0  0
   35.5920   10.2750   13.4780 N   0  0  0  0  0  0  0  0  0  0  0  0
   36.1080   10.2200   12.1110 C   0  0  0  0  0  0  0  0  0  0  0  0
   35.5800    9.0740   11.3240 C   0  0  0  0  0  0  0  0  0  0  0  0
 18 17  1  0
 17 16  1  0
 16 13  1  0
 13 12  2  0
 14 12  1  0
 15 14  2  0
 16 15  1  0
 12 10  1  0
 11 10  2  0
 10  9  1  0
  9  8  1  0
  8  7  1  0
  7  4  2  0
  4  3  1  0
  3  2  2  0
  2  1  1  0
  5  2  1  0
  6  5  2  0
  7  6  1  0
M  END
$$$$
