A71EV2A-x0717_A_147_1_A71EV2A-x0541+A+147+1__LIG
     RDKit          3D

 13 13  0  0  0  0  0  0  0  0999 V2000
    7.4370   14.3150    5.5920 O   0  0  0  0  0  0  0  0  0  0  0  0
    7.2250   13.2190    4.7010 S   0  0  0  0  0  0  0  0  0  0  0  0
    7.3320   11.8750    5.1780 O   0  0  0  0  0  0  0  0  0  0  0  0
    5.7310   13.3890    4.0750 N   0  0  0  0  0  0  0  0  0  0  0  0
    4.7540   14.1490    4.8590 C   0  0  0  0  0  0  0  0  0  0  0  0
    5.1870   12.2470    3.3300 C   0  0  0  0  0  0  0  0  0  0  0  0
    8.2490   13.4090    3.2760 C   0  0  0  0  0  0  0  0  0  0  0  0
    8.7310   14.5930    2.8010 C   0  0  0  0  0  0  0  0  0  0  0  0
    8.4820   15.9900    3.2660 C   0  0  0  0  0  0  0  0  0  0  0  0
    9.5080   14.3130    1.7440 N   0  0  0  0  0  0  0  0  0  0  0  0
    9.5470   12.9850    1.4850 N   0  0  0  0  0  0  0  0  0  0  0  0
    8.7780   12.4180    2.4200 C   0  0  0  0  0  0  0  0  0  0  0  0
    8.6010   10.9360    2.4580 C   0  0  0  0  0  0  0  0  0  0  0  0
  6  4  1  0
  5  4  1  0
  4  2  1  0
  3  2  2  0
  2  1  2  0
  7  2  1  0
  7 12  1  0
 13 12  1  0
 12 11  2  0
 11 10  1  0
 10  8  1  0
  8  7  2  0
  9  8  1  0
M  END
$$$$
