A71EV2A-x1081_A_147_1_A71EV2A-x0488+A+147+1__LIG
     RDKit          3D

  6  6  0  0  0  0  0  0  0  0999 V2000
   12.2690   -4.0170   34.7280 O   0  0  0  0  0  0  0  0  0  0  0  0
   11.8980   -4.8460   33.8990 C   0  0  0  0  0  0  0  0  0  0  0  0
   12.3270   -6.1070   33.8160 N   0  0  0  0  0  0  0  0  0  0  0  0
   11.7460   -6.8170   32.6810 C   0  0  0  0  0  0  0  0  0  0  0  0
   10.7340   -5.8240   32.1380 C   0  0  0  0  0  0  0  0  0  0  0  0
   11.0170   -4.6260   32.9220 N   0  0  0  0  0  0  0  0  0  0  0  0
  2  1  2  0
  2  6  1  0
  6  5  1  0
  5  4  1  0
  4  3  1  0
  3  2  1  0
M  END
$$$$
