A71EV2A-x0450_A_201_1_A71EV2A-x0911+A+147+1__LIG
     RDKit          3D

 13 13  0  0  0  0  0  0  0  0999 V2000
    8.4650   14.3150   25.4980 Br  0  0  0  0  0  0  0  0  0  0  0  0
    8.2600   12.4470   25.2580 C   0  0  0  0  0  0  0  0  0  0  0  0
    9.1550   11.7900   24.4260 C   0  0  0  0  0  0  0  0  0  0  0  0
    8.9950   10.4350   24.2560 C   0  0  0  0  0  0  0  0  0  0  0  0
    9.8900    9.7610   23.4820 F   0  0  0  0  0  0  0  0  0  0  0  0
    7.9980    9.7240   24.8530 C   0  0  0  0  0  0  0  0  0  0  0  0
    7.1130   10.3950   25.6780 C   0  0  0  0  0  0  0  0  0  0  0  0
    7.2310   11.7650   25.9030 C   0  0  0  0  0  0  0  0  0  0  0  0
    6.3110   12.4260   26.8920 C   0  0  0  0  0  0  0  0  0  0  0  0
    6.4140   12.1210   28.0670 O   0  0  0  0  0  0  0  0  0  0  0  0
    5.4180   13.3310   26.4570 N   0  0  0  0  0  0  0  0  0  0  0  0
    4.5050   13.9700   27.4080 C   0  0  0  0  0  0  0  0  0  0  0  0
    5.2590   13.8030   25.0810 C   0  0  0  0  0  0  0  0  0  0  0  0
 13 11  1  0
 12 11  1  0
 11  9  1  0
 10  9  2  0
  9  8  1  0
  8  7  2  0
  7  6  1  0
  6  4  2  0
  5  4  1  0
  4  3  1  0
  3  2  2  0
  8  2  1  0
  2  1  1  0
M  END
$$$$
