A71EV2A-x0525_A_246_1_A71EV2A-x0525+A+246+1__LIG
     RDKit          3D

 11 11  0  0  0  0  0  0  0  0999 V2000
    8.0530   22.3090   26.2050 O   0  0  0  0  0  0  0  0  0  0  0  0
    9.2070   22.5100   25.7780 C   0  0  0  0  0  0  0  0  0  0  0  0
    9.6880   23.7420   25.2060 C   0  0  0  0  0  0  0  0  0  0  0  0
   10.9280   23.8080   24.6560 C   0  0  0  0  0  0  0  0  0  0  0  0
   10.0940   21.4760   25.7710 N   0  0  0  0  0  0  0  0  0  0  0  0
   11.3330   21.5280   25.2100 C   0  0  0  0  0  0  0  0  0  0  0  0
   11.7720   22.6360   24.6170 C   0  0  0  0  0  0  0  0  0  0  0  0
   12.9240   22.6460   23.8550 O   0  0  0  0  0  0  0  0  0  0  0  0
   14.1400   22.7220   24.5010 C   0  0  0  0  0  0  0  0  0  0  0  0
   14.0570   23.7370   25.3690 F   0  0  0  0  0  0  0  0  0  0  0  0
   14.3840   21.5620   25.1910 F   0  0  0  0  0  0  0  0  0  0  0  0
 10  9  1  0
 11  9  1  0
  9  8  1  0
  8  7  1  0
  7  4  1  0
  4  3  2  0
  3  2  1  0
  2  1  2  0
  5  2  1  0
  6  5  1  0
  7  6  2  0
M  END
$$$$
