A71EV2A-x0497_A_147_1_A71EV2A-x3977+A+202+1__LIG
     RDKit          3D

 11 12  0  0  0  0  0  0  0  0999 V2000
   17.4310   -5.4810   19.8690 N   0  0  0  0  0  0  0  0  0  0  0  0
   17.4950   -6.1260   18.9210 C   0  0  0  0  0  0  0  0  0  0  0  0
   17.5820   -6.8980   17.6940 C   0  0  0  0  0  0  0  0  0  0  0  0
   18.6170   -6.9110   16.6970 C   0  0  0  0  0  0  0  0  0  0  0  0
   18.1120   -7.7190   15.6630 C   0  0  0  0  0  0  0  0  0  0  0  0
   16.8860   -8.1470   16.0710 N   0  0  0  0  0  0  0  0  0  0  0  0
   16.5510   -7.6560   17.3090 N   0  0  0  0  0  0  0  0  0  0  0  0
   19.8730   -6.3290   16.5400 C   0  0  0  0  0  0  0  0  0  0  0  0
   20.5840   -6.5340   15.3630 C   0  0  0  0  0  0  0  0  0  0  0  0
   20.0610   -7.3220   14.3440 C   0  0  0  0  0  0  0  0  0  0  0  0
   18.8210   -7.9300   14.4840 C   0  0  0  0  0  0  0  0  0  0  0  0
  2  1  3  0
  3  2  1  0
  3  7  2  0
  7  6  1  0
  6  5  1  0
  5 11  2  0
 11 10  1  0
 10  9  2  0
  9  8  1  0
  8  4  2  0
  4  3  1  0
  5  4  1  0
M  END
$$$$
