A71EV2A-x0528_A_201_1_A71EV2A-x3181+A+202+1__LIG
     RDKit          3D

 15 16  0  0  0  0  0  0  0  0999 V2000
   27.5430   19.5880   22.4250 O   0  0  0  0  0  0  0  0  0  0  0  0
   27.0550   20.0800   21.4300 C   0  0  0  0  0  0  0  0  0  0  0  0
   25.7600   20.3530   21.2480 N   0  0  0  0  0  0  0  0  0  0  0  0
   24.6800   19.6730   21.9560 C   0  0  0  0  0  0  0  0  0  0  0  0
   27.7760   20.5100   20.1670 C   0  0  1  0  0  0  0  0  0  0  0  0
   26.9170   21.6720   19.6940 C   0  0  0  0  0  0  0  0  0  0  0  0
   25.5220   21.3830   20.2460 C   0  0  0  0  0  0  0  0  0  0  0  0
   29.1240   20.8400   20.5190 O   0  0  0  0  0  0  0  0  0  0  0  0
   29.8980   21.5630   19.6380 C   0  0  0  0  0  0  0  0  0  0  0  0
   30.6430   20.9020   18.6740 C   0  0  0  0  0  0  0  0  0  0  0  0
   31.5150   21.6580   17.9290 C   0  0  0  0  0  0  0  0  0  0  0  0
   32.3140   21.0180   17.0480 F   0  0  0  0  0  0  0  0  0  0  0  0
   31.6560   23.0100   18.0630 C   0  0  0  0  0  0  0  0  0  0  0  0
   30.8880   23.6510   19.0180 C   0  0  0  0  0  0  0  0  0  0  0  0
   30.0040   22.9360   19.8050 C   0  0  0  0  0  0  0  0  0  0  0  0
  4  3  1  0
  3  7  1  0
  7  6  1  0
  6  5  1  0
  5  8  1  1
  9  8  1  0
  9 15  2  0
 15 14  1  0
 14 13  2  0
 13 11  1  0
 12 11  1  0
 11 10  2  0
 10  9  1  0
  5  2  1  0
  3  2  1  0
  2  1  2  0
M  END
$$$$
