A71EV2A-x0554_A_201_1_A71EV2A-x0911+A+147+1__LIG
     RDKit          3D

 13 14  0  0  0  0  0  0  0  0999 V2000
   10.9670   13.8430   24.6240 O   0  0  0  0  0  0  0  0  0  0  0  0
   11.0770   13.5370   23.4490 C   0  0  0  0  0  0  0  0  0  0  0  0
   11.9730   14.2950   22.5090 C   0  0  0  0  0  0  0  0  0  0  0  0
   10.4350   12.4710   22.9060 N   0  0  0  0  0  0  0  0  0  0  0  0
    9.5150   11.5930   23.5110 C   0  0  0  0  0  0  0  0  0  0  0  0
    8.4980   12.0030   24.3880 C   0  0  0  0  0  0  0  0  0  0  0  0
    8.1670   13.2530   24.8500 N   0  0  0  0  0  0  0  0  0  0  0  0
    7.0570   13.1450   25.6510 C   0  0  0  0  0  0  0  0  0  0  0  0
    6.6630   11.8500   25.7280 C   0  0  0  0  0  0  0  0  0  0  0  0
    7.5640   11.0880   24.9210 C   0  0  0  0  0  0  0  0  0  0  0  0
    7.6590    9.7480   24.5500 C   0  0  0  0  0  0  0  0  0  0  0  0
    8.6790    9.3350   23.7130 C   0  0  0  0  0  0  0  0  0  0  0  0
    9.5850   10.2390   23.1970 C   0  0  0  0  0  0  0  0  0  0  0  0
  3  2  1  0
  2  1  2  0
  4  2  1  0
  5  4  1  0
  5 13  2  0
 13 12  1  0
 12 11  2  0
 11 10  1  0
 10  9  1  0
  9  8  2  0
  8  7  1  0
  7  6  1  0
  6  5  1  0
 10  6  2  0
M  END
$$$$
