A71EV2A-x1081_A_201_1_A71EV2A-x1081+A+201+1__LIG
     RDKit          3D

  6  6  0  0  0  0  0  0  0  0999 V2000
    0.0000    6.0380    6.6240 O   0  0  0  0  0  0  0  0  0  0  0  0
   -0.0380    7.0870    5.9840 C   0  0  0  0  0  0  0  0  0  0  0  0
   -0.7480    7.2940    4.8660 N   0  0  0  0  0  0  0  0  0  0  0  0
   -0.5520    8.6350    4.3310 C   0  0  0  0  0  0  0  0  0  0  0  0
    0.5960    9.1710    5.1810 C   0  0  0  0  0  0  0  0  0  0  0  0
    0.6960    8.1750    6.2410 N   0  0  0  0  0  0  0  0  0  0  0  0
  2  1  2  0
  2  6  1  0
  6  5  1  0
  5  4  1  0
  4  3  1  0
  3  2  1  0
M  END
$$$$
