A71EV2A-x0237_A_151_1_A71EV2A-x0911+A+147+1__LIG
     RDKit          3D

 15 16  0  0  0  0  0  0  0  0999 V2000
    6.7120   12.7210   29.0980 O   0  0  0  0  0  0  0  0  0  0  0  0
    6.0670   11.7720   28.6550 C   0  0  0  0  0  0  0  0  0  0  0  0
    6.1020   10.4100   29.2970 C   0  0  0  0  0  0  0  0  0  0  0  0
    6.9920   10.2450   30.5280 C   0  0  0  0  0  0  0  0  0  0  0  0
    5.7240   10.0130   31.3880 C   0  0  0  0  0  0  0  0  0  0  0  0
    4.8660    9.9730   30.0970 C   0  0  0  0  0  0  0  0  0  0  0  0
    5.3130   11.8700   27.5640 N   0  0  0  0  0  0  0  0  0  0  0  0
    5.8310   12.3940   26.3140 C   0  0  0  0  0  0  0  0  0  0  0  0
    6.8900   11.5260   25.6770 C   0  0  0  0  0  0  0  0  0  0  0  0
    8.0380   12.0810   25.1500 C   0  0  0  0  0  0  0  0  0  0  0  0
    8.9000   11.3140   24.3960 C   0  0  0  0  0  0  0  0  0  0  0  0
    6.6870   10.1770   25.4450 C   0  0  0  0  0  0  0  0  0  0  0  0
    7.4970    9.4100   24.6940 N   0  0  0  0  0  0  0  0  0  0  0  0
    8.5970    9.9750   24.1630 C   0  0  0  0  0  0  0  0  0  0  0  0
    9.4770    9.1180   23.3050 C   0  0  0  0  0  0  0  0  0  0  0  0
 15 14  1  0
 14 11  1  0
 11 10  2  0
 10  9  1  0
  9  8  1  0
  8  7  1  0
  7  2  1  0
  2  1  2  0
  3  2  1  0
  3  6  1  0
  6  5  1  0
  5  4  1  0
  4  3  1  0
 12  9  2  0
 13 12  1  0
 14 13  2  0
M  END
$$$$
