A71EV2A-x0451_A_201_1_A71EV2A-x0911+A+147+1__LIG
     RDKit          3D

 14 15  0  0  0  0  0  0  0  0999 V2000
   10.5800   14.1140   24.6010 O   0  0  0  0  0  0  0  0  0  0  0  0
   10.7620   13.1860   23.8320 C   0  0  0  0  0  0  0  0  0  0  0  0
   11.7610   13.1720   22.9560 N   0  0  0  0  0  0  0  0  0  0  0  0
   12.1050   14.3360   22.1600 C   0  0  0  0  0  0  0  0  0  0  0  0
    9.8950   11.9830   23.8690 C   0  0  0  0  0  0  0  0  0  0  0  0
    8.6880   11.7750   24.6420 C   0  0  0  0  0  0  0  0  0  0  0  0
    8.2420   10.4780   24.3480 C   0  0  0  0  0  0  0  0  0  0  0  0
    9.1190    9.9240   23.4400 N   0  0  0  0  0  0  0  0  0  0  0  0
    9.0080    8.5980   22.8510 C   0  0  0  0  0  0  0  0  0  0  0  0
   10.1020   10.8310   23.1690 C   0  0  0  0  0  0  0  0  0  0  0  0
    7.9540   12.5500   25.5390 C   0  0  0  0  0  0  0  0  0  0  0  0
    6.8040   12.0280   26.1160 C   0  0  0  0  0  0  0  0  0  0  0  0
    6.3840   10.7400   25.8200 C   0  0  0  0  0  0  0  0  0  0  0  0
    7.1010    9.9460   24.9350 C   0  0  0  0  0  0  0  0  0  0  0  0
  4  3  1  0
  3  2  1  0
  2  1  2  0
  5  2  1  0
  5 10  2  0
 10  8  1  0
  9  8  1  0
  8  7  1  0
  7 14  2  0
 14 13  1  0
 13 12  2  0
 12 11  1  0
 11  6  2  0
  6  5  1  0
  7  6  1  0
M  END
$$$$
