A71EV2A-x1180_A_151_1_A71EV2A-x0911+A+147+1__LIG
     RDKit          3D

  6  6  0  0  0  0  0  0  0  0999 V2000
    2.4900   12.9810   17.9860 Cl  0  0  0  0  0  0  0  0  0  0  0  0
    2.9960   11.8140   19.1680 C   0  0  0  0  0  0  0  0  0  0  0  0
    4.0950   11.0150   19.0450 N   0  0  0  0  0  0  0  0  0  0  0  0
    4.0960   10.2160   20.1000 C   0  0  0  0  0  0  0  0  0  0  0  0
    3.0570   10.4570   20.9170 N   0  0  0  0  0  0  0  0  0  0  0  0
    2.3330   11.4810   20.3720 C   0  0  0  0  0  0  0  0  0  0  0  0
  2  1  1  0
  2  6  2  0
  6  5  1  0
  5  4  1  0
  4  3  2  0
  3  2  1  0
M  END
$$$$
