A71EV2A-x0188_A_147_1_A71EV2A-x0541+A+147+1__LIG
     RDKit          3D

 14 14  0  0  0  0  0  0  0  0999 V2000
    8.1120   12.9400    3.6230 O   0  0  0  0  0  0  0  0  0  0  0  0
    7.1150   13.1000    4.7260 S   0  0  0  0  0  0  0  0  0  0  0  0
    7.1310   11.9530    5.4250 O   0  0  0  0  0  0  0  0  0  0  0  0
    7.5940   14.0960    5.4080 N   0  0  0  0  0  0  0  0  0  0  0  0
    6.9220   14.5840    6.5380 C   0  0  0  0  0  0  0  0  0  0  0  0
    7.9950   15.1290    4.5560 C   0  0  0  0  0  0  0  0  0  0  0  0
    5.5490   13.2890    4.1220 N   0  0  0  0  0  0  0  0  0  0  0  0
    5.2310   14.6140    3.6410 C   0  0  0  0  0  0  0  0  0  0  0  0
    4.9470   12.1880    3.3360 C   0  0  0  0  0  0  0  0  0  0  0  0
    3.4390   12.3520    3.1990 C   0  0  0  0  0  0  0  0  0  0  0  0
    3.0920   13.6840    2.8750 O   0  0  0  0  0  0  0  0  0  0  0  0
    3.6910   14.7550    3.5410 C   0  0  2  0  0  0  0  0  0  0  0  0
    2.8950   15.6610    3.2930 C   0  0  0  0  0  0  0  0  0  0  0  0
    1.6020   15.5670    2.1660 C   0  0  0  0  0  0  0  0  0  0  0  0
 14 13  1  0
 12 13  1  6
 12  8  1  0
  8  7  1  0
  9  7  1  0
 10  9  1  0
 11 10  1  0
 12 11  1  0
  7  2  1  0
  3  2  2  0
  2  1  2  0
  4  2  1  0
  6  4  1  0
  5  4  1  0
M  END
$$$$
