A71EV2A-x0432_A_147_1_A71EV2A-x0432+A+147+1__LIG
     RDKit          3D

 12 13  0  0  0  0  0  0  0  0999 V2000
   -0.2280   -6.6890   15.5350 N   0  0  0  0  0  0  0  0  0  0  0  0
    1.0320   -7.0170   15.0910 C   0  0  0  0  0  0  0  0  0  0  0  0
    1.4820   -8.3410   15.1330 C   0  0  0  0  0  0  0  0  0  0  0  0
    2.7500   -8.6720   14.6990 C   0  0  0  0  0  0  0  0  0  0  0  0
    3.6150   -7.6940   14.2160 C   0  0  0  0  0  0  0  0  0  0  0  0
    3.1820   -6.3700   14.1980 C   0  0  0  0  0  0  0  0  0  0  0  0
    1.9060   -6.0370   14.6050 C   0  0  0  0  0  0  0  0  0  0  0  0
    4.9520   -8.0460   13.7680 C   0  0  0  0  0  0  0  0  0  0  0  0
    5.7280   -7.0760   13.2630 O   0  0  0  0  0  0  0  0  0  0  0  0
    6.9690   -7.6860   12.9780 N   0  0  0  0  0  0  0  0  0  0  0  0
    6.7800   -8.9450   13.3280 C   0  0  0  0  0  0  0  0  0  0  0  0
    5.5370   -9.1990   13.8100 N   0  0  0  0  0  0  0  0  0  0  0  0
  2  1  1  0
  2  7  2  0
  7  6  1  0
  6  5  2  0
  5  4  1  0
  4  3  2  0
  3  2  1  0
  8  5  1  0
  8 12  2  0
 12 11  1  0
 11 10  2  0
 10  9  1  0
  9  8  1  0
M  END
$$$$
