A71EV2A-x0152_A_147_1_A71EV2A-x0525+A+246+1__LIG
     RDKit          3D

 17 18  0  0  0  0  0  0  0  0999 V2000
    8.6480   21.4220   31.7390 O   0  0  0  0  0  0  0  0  0  0  0  0
    8.4980   21.1160   30.5560 C   0  0  0  0  0  0  0  0  0  0  0  0
    7.9920   19.9750   30.1800 N   0  0  0  0  0  0  0  0  0  0  0  0
    7.1940   19.7870   28.9820 C   0  0  0  0  0  0  0  0  0  0  0  0
    7.9020   20.3870   27.7900 C   0  0  0  0  0  0  0  0  0  0  0  0
    8.5960   22.1680   29.5020 C   0  0  0  0  0  0  0  0  0  0  0  0
    8.5860   21.6530   28.1280 N   0  0  0  0  0  0  0  0  0  0  0  0
    9.3140   22.4130   27.2920 C   0  0  0  0  0  0  0  0  0  0  0  0
   10.1770   23.1680   27.6940 O   0  0  0  0  0  0  0  0  0  0  0  0
    9.0900   22.2650   25.8070 C   0  0  0  0  0  0  0  0  0  0  0  0
   10.1350   22.9050   25.0730 O   0  0  0  0  0  0  0  0  0  0  0  0
   11.3760   22.3700   25.1380 C   0  0  0  0  0  0  0  0  0  0  0  0
   12.0330   23.3270   24.4120 C   0  0  0  0  0  0  0  0  0  0  0  0
   13.4010   23.2680   24.3150 C   0  0  0  0  0  0  0  0  0  0  0  0
   14.0890   22.2510   24.8870 C   0  0  0  0  0  0  0  0  0  0  0  0
   13.4230   21.2690   25.5770 C   0  0  0  0  0  0  0  0  0  0  0  0
   12.0580   21.3260   25.7240 C   0  0  0  0  0  0  0  0  0  0  0  0
  9  8  2  0
 10  8  1  0
 11 10  1  0
 12 11  1  0
 12 17  2  0
 17 16  1  0
 16 15  2  0
 15 14  1  0
 14 13  2  0
 13 12  1  0
  8  7  1  0
  7  5  1  0
  5  4  1  0
  4  3  1  0
  3  2  1  0
  2  1  2  0
  6  2  1  0
  7  6  1  0
M  END
$$$$
