A71EV2A-x1080_A_201_1_A71EV2A-x0911+A+147+1__LIG
     RDKit          3D

  6  5  0  0  0  0  0  0  0  0999 V2000
    5.3510   14.2090   24.2170 O   0  0  0  0  0  0  0  0  0  0  0  0
    5.7890   14.6830   23.1750 C   0  0  0  0  0  0  0  0  0  0  0  0
    5.6220   15.9450   22.8390 N   0  0  0  0  0  0  0  0  0  0  0  0
    6.7210   16.7060   22.4470 O   0  0  0  0  0  0  0  0  0  0  0  0
    6.5730   13.8610   22.1880 C   0  0  0  0  0  0  0  0  0  0  0  0
    7.9260   13.4480   22.7150 C   0  0  0  0  0  0  0  0  0  0  0  0
  6  5  1  0
  5  2  1  0
  2  1  2  0
  3  2  1  0
  4  3  1  0
M  END
$$$$
