A71EV2A-x1293_A_151_1_A71EV2A-x3977+A+202+1__LIG
     RDKit          3D

 10 11  0  0  0  0  0  0  0  0999 V2000
   18.5630    1.3390   21.5370 N   0  0  0  0  0  0  0  0  0  0  0  0
   18.2830    0.0570   21.2850 C   0  0  0  0  0  0  0  0  0  0  0  0
   18.6700   -0.9760   22.1390 N   0  0  0  0  0  0  0  0  0  0  0  0
   18.1160   -2.1170   21.5580 C   0  0  0  0  0  0  0  0  0  0  0  0
   17.4740   -1.8040   20.4320 N   0  0  0  0  0  0  0  0  0  0  0  0
   17.5830   -0.4170   20.2630 N   0  0  0  0  0  0  0  0  0  0  0  0
   19.3880   -1.0280   23.3210 C   0  0  0  0  0  0  0  0  0  0  0  0
   19.5360   -2.2090   23.9580 C   0  0  0  0  0  0  0  0  0  0  0  0
   18.9700   -3.3840   23.4120 C   0  0  0  0  0  0  0  0  0  0  0  0
   18.2780   -3.3500   22.2390 C   0  0  0  0  0  0  0  0  0  0  0  0
  2  1  1  0
  2  6  2  0
  6  5  1  0
  5  4  2  0
  4 10  1  0
 10  9  2  0
  9  8  1  0
  8  7  2  0
  7  3  1  0
  3  2  1  0
  4  3  1  0
M  END
$$$$
