A71EV2A-x0446_A_147_1_A71EV2A-x0911+A+147+1__LIG
     RDKit          3D

 10 10  0  0  0  0  0  0  0  0999 V2000
    9.7410   11.2930   24.7970 O   0  0  0  0  0  0  0  0  0  0  0  0
    8.7470   10.6230   24.5350 C   0  0  0  0  0  0  0  0  0  0  0  0
    8.7800    9.5430   23.7620 N   0  0  0  0  0  0  0  0  0  0  0  0
    9.9110    9.2370   22.9080 C   0  0  0  0  0  0  0  0  0  0  0  0
    7.4400   10.9870   25.1120 C   0  0  0  0  0  0  0  0  0  0  0  0
    7.2740   12.6390   25.6060 S   0  0  0  0  0  0  0  0  0  0  0  0
    5.6810   12.2790   26.1940 C   0  0  0  0  0  0  0  0  0  0  0  0
    4.8390   13.3200   26.8490 C   0  0  0  0  0  0  0  0  0  0  0  0
    5.3000   11.0460   26.0290 N   0  0  0  0  0  0  0  0  0  0  0  0
    6.2960   10.3220   25.4160 C   0  0  0  0  0  0  0  0  0  0  0  0
  4  3  1  0
  3  2  1  0
  2  1  2  0
  5  2  1  0
  5 10  2  0
 10  9  1  0
  9  7  2  0
  8  7  1  0
  7  6  1  0
  6  5  1  0
M  END
$$$$
