A71EV2A-x0341_A_147_1_A71EV2A-x3977+A+202+1__LIG
     RDKit          3D

 13 14  0  0  0  0  0  0  0  0999 V2000
   16.4100   -4.4650   21.4330 O   0  0  0  0  0  0  0  0  0  0  0  0
   17.2190   -3.9090   20.6390 C   0  0  0  0  0  0  0  0  0  0  0  0
   18.4560   -3.1400   20.9260 C   0  0  0  0  0  0  0  0  0  0  0  0
   18.9180   -2.7710   19.5660 C   0  0  0  0  0  0  0  0  0  0  0  0
   20.1560   -1.9740   19.3110 C   0  0  0  0  0  0  0  0  0  0  0  0
   17.0540   -3.9350   19.2240 N   0  0  0  0  0  0  0  0  0  0  0  0
   18.1180   -3.2280   18.6560 N   0  0  0  0  0  0  0  0  0  0  0  0
   15.9850   -4.5720   18.5340 C   0  0  0  0  0  0  0  0  0  0  0  0
   14.9970   -3.8220   17.9100 C   0  0  0  0  0  0  0  0  0  0  0  0
   13.9420   -4.3930   17.2340 C   0  0  0  0  0  0  0  0  0  0  0  0
   13.8540   -5.7700   17.1680 C   0  0  0  0  0  0  0  0  0  0  0  0
   14.8310   -6.5260   17.7870 C   0  0  0  0  0  0  0  0  0  0  0  0
   15.8930   -5.9430   18.4660 C   0  0  0  0  0  0  0  0  0  0  0  0
  5  4  1  0
  4  7  2  0
  7  6  1  0
  6  2  1  0
  2  1  2  0
  3  2  1  0
  4  3  1  0
  8  6  1  0
  8 13  2  0
 13 12  1  0
 12 11  2  0
 11 10  1  0
 10  9  2  0
  9  8  1  0
M  END
$$$$
