A71EV2A-x0691_A_201_1_A71EV2A-x0541+A+147+1__LIG
     RDKit          3D

 12 12  0  0  0  0  0  0  0  0999 V2000
    7.8450   10.7780    2.7230 O   0  0  0  0  0  0  0  0  0  0  0  0
    8.0510   12.1300    2.2830 S   0  0  0  0  0  0  0  0  0  0  0  0
    9.3270   12.5540    1.7760 O   0  0  0  0  0  0  0  0  0  0  0  0
    6.8310   12.4780    1.0860 C   0  0  0  0  0  0  0  0  0  0  0  0
    7.6570   13.1560    3.6420 C   0  0  0  0  0  0  0  0  0  0  0  0
    7.8100   14.5030    3.6270 C   0  0  0  0  0  0  0  0  0  0  0  0
    8.7050   14.9990    2.8000 N   0  0  0  0  0  0  0  0  0  0  0  0
    9.6530   15.9850    3.2350 C   0  0  0  0  0  0  0  0  0  0  0  0
    7.1740   12.5150    4.7500 C   0  0  0  0  0  0  0  0  0  0  0  0
    6.6110   13.2550    5.7070 C   0  0  0  0  0  0  0  0  0  0  0  0
    6.5670   14.5990    5.6020 C   0  0  0  0  0  0  0  0  0  0  0  0
    7.2630   15.2370    4.6350 C   0  0  0  0  0  0  0  0  0  0  0  0
  8  7  1  0
  7  6  1  0
  6 12  2  0
 12 11  1  0
 11 10  2  0
 10  9  1  0
  9  5  2  0
  6  5  1  0
  5  2  1  0
  3  2  2  0
  2  1  2  0
  4  2  1  0
M  END
$$$$
