A71EV2A-x0416_A_147_1_A71EV2A-x0911+A+147+1__LIG
     RDKit          3D

 15 16  0  0  0  0  0  0  0  0999 V2000
    7.9050   14.6420   24.9030 O   0  0  0  0  0  0  0  0  0  0  0  0
    7.7740   14.1690   26.0280 C   0  0  0  0  0  0  0  0  0  0  0  0
    7.4290   15.0760   27.2030 C   0  0  1  0  0  0  0  0  0  0  0  0
    6.6220   14.3910   28.1790 O   0  0  0  0  0  0  0  0  0  0  0  0
    6.8870   14.9720   29.4640 C   0  0  0  0  0  0  0  0  0  0  0  0
    8.0360   15.9440   29.2980 C   0  0  0  0  0  0  0  0  0  0  0  0
    8.6470   15.5400   27.9720 C   0  0  0  0  0  0  0  0  0  0  0  0
    7.8950   12.8540   26.3220 N   0  0  0  0  0  0  0  0  0  0  0  0
    8.2210   11.8030   25.4520 C   0  0  0  0  0  0  0  0  0  0  0  0
    9.1390   11.9570   24.4060 C   0  0  0  0  0  0  0  0  0  0  0  0
    9.4710   10.8380   23.6670 C   0  0  0  0  0  0  0  0  0  0  0  0
    7.6490   10.6220   25.7370 N   0  0  0  0  0  0  0  0  0  0  0  0
    8.0030    9.5620   24.9940 C   0  0  0  0  0  0  0  0  0  0  0  0
    8.9150    9.6040   23.9500 C   0  0  0  0  0  0  0  0  0  0  0  0
    9.2960    8.3690   23.1720 C   0  0  0  0  0  0  0  0  0  0  0  0
 15 14  1  0
 14 11  1  0
 11 10  2  0
 10  9  1  0
  9  8  1  0
  8  2  1  0
  2  1  2  0
  3  2  1  6
  3  7  1  0
  7  6  1  0
  6  5  1  0
  5  4  1  0
  4  3  1  0
 12  9  2  0
 13 12  1  0
 14 13  2  0
M  END
$$$$
