A71EV2A-x0831_A_147_1_A71EV2A-x3977+A+202+1__LIG
     RDKit          3D

 15 16  0  0  0  0  0  0  0  0999 V2000
    9.5670   -7.7660   12.0630 N   0  0  0  0  0  0  0  0  0  0  0  0
   10.8570   -8.1700   12.3260 C   0  0  0  0  0  0  0  0  0  0  0  0
   11.6130   -7.5310   13.3100 C   0  0  0  0  0  0  0  0  0  0  0  0
   12.9000   -7.9610   13.5980 C   0  0  0  0  0  0  0  0  0  0  0  0
   13.4530   -9.0330   12.9150 C   0  0  0  0  0  0  0  0  0  0  0  0
   12.7100   -9.6660   11.9290 C   0  0  0  0  0  0  0  0  0  0  0  0
   11.4260   -9.2400   11.6310 C   0  0  0  0  0  0  0  0  0  0  0  0
   13.7210   -7.3850   14.5390 O   0  0  0  0  0  0  0  0  0  0  0  0
   13.1330   -6.9440   15.7720 C   0  0  0  0  0  0  0  0  0  0  0  0
   14.1560   -6.2770   16.6450 C   0  0  0  0  0  0  0  0  0  0  0  0
   15.4080   -6.8380   16.8500 C   0  0  0  0  0  0  0  0  0  0  0  0
   16.3530   -6.1950   17.6340 C   0  0  0  0  0  0  0  0  0  0  0  0
   16.0600   -4.9830   18.2160 C   0  0  0  0  0  0  0  0  0  0  0  0
   14.8210   -4.4150   18.0230 C   0  0  0  0  0  0  0  0  0  0  0  0
   13.8710   -5.0610   17.2470 C   0  0  0  0  0  0  0  0  0  0  0  0
  2  1  1  0
  2  7  2  0
  7  6  1  0
  6  5  2  0
  5  4  1  0
  8  4  1  0
  9  8  1  0
 10  9  1  0
 10 15  2  0
 15 14  1  0
 14 13  2  0
 13 12  1  0
 12 11  2  0
 11 10  1  0
  4  3  2  0
  3  2  1  0
M  END
$$$$
