A71EV2A-x0375_A_301_1_A71EV2A-x0911+A+147+1__LIG
     RDKit          3D

 12 12  0  0  0  0  0  0  0  0999 V2000
   11.9100   12.7410   25.3030 S   0  0  0  0  0  0  0  0  0  0  0  0
   11.4960   13.2920   23.7630 C   0  0  0  0  0  0  0  0  0  0  0  0
   12.3720   13.8490   22.9560 N   0  0  0  0  0  0  0  0  0  0  0  0
   10.2390   13.1620   23.3100 N   0  0  0  0  0  0  0  0  0  0  0  0
    9.1360   12.6010   23.9950 C   0  0  0  0  0  0  0  0  0  0  0  0
    9.1190   11.2080   24.1760 C   0  0  0  0  0  0  0  0  0  0  0  0
   10.1610   10.5420   23.5920 O   0  0  0  0  0  0  0  0  0  0  0  0
    9.9220    9.2220   23.1100 C   0  0  0  0  0  0  0  0  0  0  0  0
    8.0970   13.3690   24.5170 C   0  0  0  0  0  0  0  0  0  0  0  0
    7.0680   12.7520   25.2080 C   0  0  0  0  0  0  0  0  0  0  0  0
    7.0630   11.3810   25.3840 C   0  0  0  0  0  0  0  0  0  0  0  0
    8.0940   10.6020   24.8830 C   0  0  0  0  0  0  0  0  0  0  0  0
  8  7  1  0
  7  6  1  0
  6 12  2  0
 12 11  1  0
 11 10  2  0
 10  9  1  0
  9  5  2  0
  6  5  1  0
  5  4  1  0
  4  2  1  0
  2  1  2  0
  3  2  1  0
M  END
$$$$
