A71EV2A-x1169_A_151_1_A71EV2A-x0911+A+147+1__LIG
     RDKit          3D

  7  7  0  0  0  0  0  0  0  0999 V2000
    9.7630    9.2630   23.4540 N   0  0  0  0  0  0  0  0  0  0  0  0
    9.0380    9.7430   24.1420 C   0  0  0  0  0  0  0  0  0  0  0  0
    8.0470   10.2950   25.0180 C   0  0  0  0  0  0  0  0  0  0  0  0
    6.9030    9.6210   25.3390 N   0  0  0  0  0  0  0  0  0  0  0  0
    6.2660   10.4360   26.0990 C   0  0  0  0  0  0  0  0  0  0  0  0
    6.8810   11.6180   26.3220 O   0  0  0  0  0  0  0  0  0  0  0  0
    8.0380   11.4940   25.6160 C   0  0  0  0  0  0  0  0  0  0  0  0
  2  1  3  0
  3  2  1  0
  3  7  2  0
  7  6  1  0
  6  5  1  0
  5  4  2  0
  4  3  1  0
M  END
$$$$
