A71EV2A-x0278_A_147_1_A71EV2A-x0541+A+147+1__LIG
     RDKit          3D

 15 16  0  0  0  0  0  0  0  0999 V2000
    7.0200   14.1940    6.0040 O   0  0  0  0  0  0  0  0  0  0  0  0
    6.9320   13.2030    4.9760 S   0  0  0  0  0  0  0  0  0  0  0  0
    7.1990   11.8430    5.3070 O   0  0  0  0  0  0  0  0  0  0  0  0
    5.4080   13.2610    4.4000 N   0  0  0  0  0  0  0  0  0  0  0  0
    4.7670   14.5740    4.1510 C   0  0  0  0  0  0  0  0  0  0  0  0
    4.0280   14.3960    2.8290 C   0  0  0  0  0  0  0  0  0  0  0  0
    4.9780   12.2680    3.3930 C   0  0  0  0  0  0  0  0  0  0  0  0
    3.7200   12.9010    2.7850 C   0  0  1  0  0  0  0  0  0  0  0  0
    2.5290   12.4330    3.5080 N   0  0  0  0  0  0  0  0  0  0  0  0
    7.9870   13.6740    3.6440 C   0  0  0  0  0  0  0  0  0  0  0  0
    8.3800   12.7260    2.7160 C   0  0  0  0  0  0  0  0  0  0  0  0
    9.1450   13.1220    1.6310 C   0  0  0  0  0  0  0  0  0  0  0  0
    9.5190   14.4340    1.4880 C   0  0  0  0  0  0  0  0  0  0  0  0
    9.1350   15.3660    2.4120 C   0  0  0  0  0  0  0  0  0  0  0  0
    8.3710   14.9980    3.5080 C   0  0  0  0  0  0  0  0  0  0  0  0
  8  9  1  1
  8  6  1  0
  6  5  1  0
  5  4  1  0
  7  4  1  0
  8  7  1  0
  4  2  1  0
  3  2  2  0
  2  1  2  0
 10  2  1  0
 10 15  2  0
 15 14  1  0
 14 13  2  0
 13 12  1  0
 12 11  2  0
 11 10  1  0
M  END
$$$$
