A71EV2A-x0437_A_250_1_A71EV2A-x0911+A+147+1__LIG
     RDKit          3D

 10 10  0  0  0  0  0  0  0  0999 V2000
    5.4750   13.1660   28.2910 C   0  0  0  0  0  0  0  0  0  0  0  0
    5.9980   12.1280   27.3450 C   0  0  0  0  0  0  0  0  0  0  0  0
    5.3780   10.8980   27.1920 C   0  0  0  0  0  0  0  0  0  0  0  0
    5.9300    9.9790   26.3250 C   0  0  0  0  0  0  0  0  0  0  0  0
    7.1010   12.4460   26.6680 N   0  0  0  0  0  0  0  0  0  0  0  0
    7.6550   11.5490   25.8050 N   0  0  0  0  0  0  0  0  0  0  0  0
    7.0980   10.3510   25.6530 C   0  0  0  0  0  0  0  0  0  0  0  0
    7.7490    9.4840   24.8300 N   0  0  0  0  0  0  0  0  0  0  0  0
    8.9160    9.8930   24.0340 C   0  0  0  0  0  0  0  0  0  0  0  0
    9.4670    8.8080   23.1570 C   0  0  0  0  0  0  0  0  0  0  0  0
 10  9  1  0
  9  8  1  0
  8  7  1  0
  7  4  2  0
  4  3  1  0
  3  2  2  0
  2  1  1  0
  5  2  1  0
  6  5  2  0
  7  6  1  0
M  END
$$$$
