A71EV2A-x0526_A_147_1_A71EV2A-x0911+A+147+1__LIG
     RDKit          3D

 12 13  0  0  0  0  0  0  0  0999 V2000
    3.2990   10.4300   20.2810 C   0  0  0  0  0  0  0  0  0  0  0  0
    3.1260   11.3220   19.1010 C   0  0  0  0  0  0  0  0  0  0  0  0
    1.9480   11.9490   18.7510 N   0  0  0  0  0  0  0  0  0  0  0  0
    2.2170   12.6790   17.6020 C   0  0  0  0  0  0  0  0  0  0  0  0
    3.5150   12.4650   17.3250 C   0  0  0  0  0  0  0  0  0  0  0  0
    4.0850   11.6490   18.2490 N   0  0  0  0  0  0  0  0  0  0  0  0
    0.6720   11.9150   19.4200 C   0  0  0  0  0  0  0  0  0  0  0  0
    0.5190   11.9210   20.7880 C   0  0  0  0  0  0  0  0  0  0  0  0
   -0.6540   11.9510   21.4110 N   0  0  0  0  0  0  0  0  0  0  0  0
   -1.7430   12.0190   20.6610 C   0  0  0  0  0  0  0  0  0  0  0  0
   -1.7000   12.0630   19.2940 C   0  0  0  0  0  0  0  0  0  0  0  0
   -0.4810   11.9780   18.6680 C   0  0  0  0  0  0  0  0  0  0  0  0
  2  1  1  0
  2  6  2  0
  6  5  1  0
  5  4  2  0
  4  3  1  0
  3  2  1  0
  7  3  1  0
  7 12  2  0
 12 11  1  0
 11 10  2  0
 10  9  1  0
  9  8  2  0
  8  7  1  0
M  END
$$$$
