A71EV2A-x0332_A_147_1_A71EV2A-x0541+A+147+1__LIG
     RDKit          3D

 12 12  0  0  0  0  0  0  0  0999 V2000
    7.6260   11.3270    3.1490 Cl  0  0  0  0  0  0  0  0  0  0  0  0
    8.1640   12.9690    2.8600 C   0  0  0  0  0  0  0  0  0  0  0  0
    8.9960   13.2090    1.7880 C   0  0  0  0  0  0  0  0  0  0  0  0
    9.4930   14.4740    1.5820 C   0  0  0  0  0  0  0  0  0  0  0  0
    9.1530   15.4970    2.4240 C   0  0  0  0  0  0  0  0  0  0  0  0
    8.3220   15.2750    3.4890 C   0  0  0  0  0  0  0  0  0  0  0  0
    7.8260   14.0070    3.7190 C   0  0  0  0  0  0  0  0  0  0  0  0
    6.8230   13.7850    5.1260 S   0  0  0  0  0  0  0  0  0  0  0  0
    5.5120   14.0980    4.6530 O   0  0  0  0  0  0  0  0  0  0  0  0
    7.1040   12.4650    5.5770 O   0  0  0  0  0  0  0  0  0  0  0  0
    7.1660   14.8550    6.2280 N   0  0  0  0  0  0  0  0  0  0  0  0
    6.2060   15.1480    7.2840 C   0  0  0  0  0  0  0  0  0  0  0  0
 12 11  1  0
 11  8  1  0
  9  8  2  0
 10  8  2  0
  8  7  1  0
  7  6  2  0
  6  5  1  0
  5  4  2  0
  4  3  1  0
  3  2  2  0
  7  2  1  0
  2  1  1  0
M  END
$$$$
