A71EV2A-x0278_A_201_1_A71EV2A-x0525+A+246+1__LIG
     RDKit          3D

 15 16  0  0  0  0  0  0  0  0999 V2000
   13.2320   20.7660   25.2840 O   0  0  0  0  0  0  0  0  0  0  0  0
   13.1240   22.1420   24.9200 S   0  0  0  0  0  0  0  0  0  0  0  0
   13.3280   22.5420   23.5630 O   0  0  0  0  0  0  0  0  0  0  0  0
   11.6170   22.6220   25.3300 N   0  0  0  0  0  0  0  0  0  0  0  0
   11.0020   23.7810   24.6520 C   0  0  0  0  0  0  0  0  0  0  0  0
    9.6780   23.8490   25.3930 C   0  0  0  0  0  0  0  0  0  0  0  0
   10.6010   21.6330   25.7420 C   0  0  0  0  0  0  0  0  0  0  0  0
    9.2730   22.3810   25.5770 C   0  0  1  0  0  0  0  0  0  0  0  0
    8.3960   22.1290   26.7250 N   0  0  0  0  0  0  0  0  0  0  0  0
   14.2280   23.0530   25.9450 C   0  0  0  0  0  0  0  0  0  0  0  0
   14.4570   22.6310   27.2470 C   0  0  0  0  0  0  0  0  0  0  0  0
   15.2440   23.4090   28.0820 C   0  0  0  0  0  0  0  0  0  0  0  0
   15.7910   24.5870   27.6270 C   0  0  0  0  0  0  0  0  0  0  0  0
   15.5640   24.9960   26.3310 C   0  0  0  0  0  0  0  0  0  0  0  0
   14.7960   24.2250   25.4710 C   0  0  0  0  0  0  0  0  0  0  0  0
  8  9  1  1
  8  6  1  0
  6  5  1  0
  5  4  1  0
  7  4  1  0
  8  7  1  0
  4  2  1  0
  3  2  2  0
  2  1  2  0
 10  2  1  0
 10 15  2  0
 15 14  1  0
 14 13  2  0
 13 12  1  0
 12 11  2  0
 11 10  1  0
M  END
$$$$
