A71EV2A-x0487_A_250_1_A71EV2A-x0911+A+147+1__LIG
     RDKit          3D

 11 11  0  0  0  0  0  0  0  0999 V2000
   11.4760   13.4750   24.7520 O   0  0  0  0  0  0  0  0  0  0  0  0
   11.4570   13.0670   23.5930 C   0  0  0  0  0  0  0  0  0  0  0  0
   12.4060   13.5760   22.5590 C   0  0  0  0  0  0  0  0  0  0  0  0
   10.5600   12.1460   23.1620 N   0  0  0  0  0  0  0  0  0  0  0  0
    9.4660   11.6600   23.9290 C   0  0  0  0  0  0  0  0  0  0  0  0
    9.1230   10.2980   23.8380 C   0  0  0  0  0  0  0  0  0  0  0  0
    9.9040    9.3270   22.9960 C   0  0  0  0  0  0  0  0  0  0  0  0
    8.0470    9.8710   24.6090 C   0  0  0  0  0  0  0  0  0  0  0  0
    7.3330   10.6570   25.4240 N   0  0  0  0  0  0  0  0  0  0  0  0
    7.6830   11.9460   25.4860 C   0  0  0  0  0  0  0  0  0  0  0  0
    8.7350   12.4970   24.7760 C   0  0  0  0  0  0  0  0  0  0  0  0
  3  2  1  0
  2  1  2  0
  4  2  1  0
  5  4  1  0
  5 11  2  0
 11 10  1  0
 10  9  2  0
  9  8  1  0
  8  6  2  0
  6  5  1  0
  7  6  1  0
M  END
$$$$
