A71EV2A-x0571_A_147_1_A71EV2A-x0517+A+147+1__LIG
     RDKit          3D

 11 11  0  0  0  0  0  0  0  0999 V2000
   33.3590   10.4070   15.0770 O   0  0  0  0  0  0  0  0  0  0  0  0
   34.5900   10.4610   14.9440 C   0  0  0  0  0  0  0  0  0  0  0  0
   35.4090   10.8630   15.9100 N   0  0  0  0  0  0  0  0  0  0  0  0
   35.2260   10.0800   13.6530 C   0  0  0  0  0  0  0  0  0  0  0  0
   36.5180   10.3870   13.1970 C   0  0  0  0  0  0  0  0  0  0  0  0
   34.5360    9.4000   12.7580 N   0  0  0  0  0  0  0  0  0  0  0  0
   35.4130    9.2650   11.6540 O   0  0  0  0  0  0  0  0  0  0  0  0
   36.5790    9.8710   11.9590 C   0  0  0  0  0  0  0  0  0  0  0  0
   37.6140    9.8550   10.8870 C   0  0  0  0  0  0  0  0  0  0  0  0
   38.6940    9.0060   11.2400 O   0  0  0  0  0  0  0  0  0  0  0  0
   39.6500    8.8470   10.1920 C   0  0  0  0  0  0  0  0  0  0  0  0
 11 10  1  0
 10  9  1  0
  9  8  1  0
  8  5  2  0
  5  4  1  0
  6  4  2  0
  7  6  1  0
  8  7  1  0
  4  2  1  0
  2  1  2  0
  3  2  1  0
M  END
$$$$
