A71EV2A-x0514_A_250_1_A71EV2A-x3181+A+202+1__LIG
     RDKit          3D

 12 13  0  0  0  0  0  0  0  0999 V2000
   23.9030   22.4170   17.1810 N   0  0  0  0  0  0  0  0  0  0  0  0
   24.8050   21.9120   18.0230 C   0  0  0  0  0  0  0  0  0  0  0  0
   26.5040   22.3590   17.8780 S   0  0  0  0  0  0  0  0  0  0  0  0
   24.5080   21.1430   19.0370 N   0  0  0  0  0  0  0  0  0  0  0  0
   25.6450   20.8540   19.7840 C   0  0  0  0  0  0  0  0  0  0  0  0
   26.8310   21.4310   19.3110 C   0  0  0  0  0  0  0  0  0  0  0  0
   28.0400   21.2230   19.9630 C   0  0  0  0  0  0  0  0  0  0  0  0
   28.0670   20.4070   21.0780 C   0  0  0  0  0  0  0  0  0  0  0  0
   25.6800   20.0370   20.9130 C   0  0  0  0  0  0  0  0  0  0  0  0
   26.9010   19.8120   21.5370 C   0  0  0  0  0  0  0  0  0  0  0  0
   27.1260   18.9550   22.5850 O   0  0  0  0  0  0  0  0  0  0  0  0
   25.9990   18.2760   23.1490 C   0  0  0  0  0  0  0  0  0  0  0  0
 12 11  1  0
 11 10  1  0
 10  8  2  0
  8  7  1  0
  7  6  2  0
  6  3  1  0
  3  2  1  0
  2  1  1  0
  4  2  2  0
  5  4  1  0
  6  5  1  0
  9  5  2  0
 10  9  1  0
M  END
$$$$
