A71EV2A-x1019_A_147_1_A71EV2A-x0911+A+147+1__LIG
     RDKit          3D

 13 13  0  0  0  0  0  0  0  0999 V2000
   12.9780   12.2980   26.2310 O   0  0  0  0  0  0  0  0  0  0  0  0
   12.9870   12.1770   25.0250 C   0  0  0  0  0  0  0  0  0  0  0  0
   13.9330   11.5650   24.3720 O   0  0  0  0  0  0  0  0  0  0  0  0
   11.8960   12.7270   24.1450 C   0  0  0  0  0  0  0  0  0  0  0  0
   10.5210   12.5070   24.7330 C   0  0  0  0  0  0  0  0  0  0  0  0
    9.9170   11.2470   24.6930 C   0  0  0  0  0  0  0  0  0  0  0  0
   10.6770   10.2510   24.1470 O   0  0  0  0  0  0  0  0  0  0  0  0
   10.0030    9.2330   23.4110 C   0  0  0  0  0  0  0  0  0  0  0  0
    8.6470   11.0520   25.2030 C   0  0  0  0  0  0  0  0  0  0  0  0
    9.8150   13.5590   25.3130 C   0  0  0  0  0  0  0  0  0  0  0  0
    8.5400   13.3770   25.8110 C   0  0  0  0  0  0  0  0  0  0  0  0
    7.9760   12.1280   25.7430 C   0  0  0  0  0  0  0  0  0  0  0  0
    6.2150   11.8710   26.3870 Br  0  0  0  0  0  0  0  0  0  0  0  0
 13 12  1  0
 12  9  2  0
  9  6  1  0
  7  6  1  0
  8  7  1  0
  6  5  2  0
  5  4  1  0
  4  2  1  0
  3  2  1  0
  2  1  2  0
 10  5  1  0
 11 10  2  0
 12 11  1  0
M  END
$$$$
