A71EV2A-x0228_A_147_1_A71EV2A-x0525+A+246+1__LIG
     RDKit          3D

 11 11  0  0  0  0  0  0  0  0999 V2000
   14.1200   21.2080   25.0410 O   0  0  0  0  0  0  0  0  0  0  0  0
   13.2750   22.2500   24.5580 S   0  0  0  0  0  0  0  0  0  0  0  0
   12.9310   22.2810   23.1770 O   0  0  0  0  0  0  0  0  0  0  0  0
   13.9720   23.7950   25.0020 C   0  0  0  0  0  0  0  0  0  0  0  0
   11.9000   22.0970   25.3470 N   0  0  0  0  0  0  0  0  0  0  0  0
   10.8630   23.0270   24.9240 C   0  0  0  0  0  0  0  0  0  0  0  0
    9.4840   22.5760   25.3640 C   0  0  0  0  0  0  0  0  0  0  0  0
    9.4420   22.2190   26.8290 C   0  0  0  0  0  0  0  0  0  0  0  0
    8.2340   21.4930   26.9790 O   0  0  0  0  0  0  0  0  0  0  0  0
   10.6330   21.3920   27.2950 C   0  0  0  0  0  0  0  0  0  0  0  0
   11.9620   21.9910   26.8160 C   0  0  0  0  0  0  0  0  0  0  0  0
  4  2  1  0
  3  2  2  0
  2  1  2  0
  5  2  1  0
  5 11  1  0
 11 10  1  0
 10  8  1  0
  9  8  1  0
  8  7  1  0
  7  6  1  0
  6  5  1  0
M  END
$$$$
