A71EV2A-x0443_A_250_1_A71EV2A-x0911+A+147+1__LIG
     RDKit          3D

 10 11  0  0  0  0  0  0  0  0999 V2000
    9.4580    8.9420   23.2190 C   0  0  0  0  0  0  0  0  0  0  0  0
    8.6420    9.8260   24.1070 C   0  0  0  0  0  0  0  0  0  0  0  0
    7.5770    9.2980   24.8190 N   0  0  0  0  0  0  0  0  0  0  0  0
    7.0740   10.3050   25.5180 C   0  0  0  0  0  0  0  0  0  0  0  0
    7.7820   11.4750   25.2610 N   0  0  0  0  0  0  0  0  0  0  0  0
    8.7800   11.1550   24.3700 C   0  0  0  0  0  0  0  0  0  0  0  0
    6.0160   10.3550   26.4620 C   0  0  0  0  0  0  0  0  0  0  0  0
    5.7190   11.5400   27.0670 C   0  0  0  0  0  0  0  0  0  0  0  0
    6.4480   12.7190   26.7620 C   0  0  0  0  0  0  0  0  0  0  0  0
    7.4680   12.6800   25.8760 C   0  0  0  0  0  0  0  0  0  0  0  0
  2  1  1  0
  2  6  2  0
  6  5  1  0
  5 10  1  0
 10  9  2  0
  9  8  1  0
  8  7  2  0
  7  4  1  0
  5  4  1  0
  4  3  2  0
  3  2  1  0
M  END
$$$$
